/*--------------------------------*- C++ -*----------------------------------*\
| =========                 |                                                 |
| \\      /  F ield         | OpenFOAM: The Open Source CFD Toolbox           |
|  \\    /   O peration     | Version:  1.3                                   |
|   \\  /    A nd           | Web:      http://www.openfoam.org               |
|    \\/     M anipulation  |                                                 |
\*---------------------------------------------------------------------------*/

FoamFile
{
    version         2.0;
    format          ascii;
    class           dictionary;
    object          transportProperties;
}

// * * * * * * * * * * * * * * * * * * * * * * * * * * * * * * * * * * * * * //


// air properties taken from https://www.engineeringtoolbox.com/air-properties-d_156.html

// Thermal conductivity - Dimensions: W/m-K
k            	k   [1 1 -3 -1 0 0 0] 0.025;


//pMin            pMin [ 1 -1 -2 0 0 0 0 ] 1000;

// ************************************************************************* //
